Version 4
SHEET 1 1096 680
WIRE -384 -64 -464 -64
WIRE -320 -64 -384 -64
WIRE -464 0 -464 -64
WIRE -32 64 -80 64
WIRE 0 64 -32 64
WIRE 336 64 176 64
WIRE 528 80 400 80
WIRE 768 80 528 80
WIRE 880 80 768 80
WIRE 992 80 944 80
WIRE 1072 80 992 80
WIRE 336 96 256 96
WIRE -464 112 -464 80
WIRE -336 112 -464 112
WIRE -240 112 -336 112
WIRE -208 112 -240 112
WIRE -80 112 -80 64
WIRE -80 112 -128 112
WIRE -464 128 -464 112
WIRE -240 144 -240 112
WIRE 992 160 992 80
WIRE 992 160 880 160
WIRE -80 192 -80 112
WIRE 80 192 -80 192
WIRE 176 192 176 64
WIRE 176 192 160 192
WIRE 224 192 176 192
WIRE 368 192 304 192
WIRE 400 192 368 192
WIRE 528 192 528 80
WIRE 528 192 480 192
WIRE 880 192 880 160
WIRE 992 192 992 160
WIRE -464 272 -464 208
WIRE -384 272 -464 272
WIRE -240 272 -240 208
WIRE -240 272 -384 272
WIRE 752 272 752 256
WIRE 752 272 560 272
WIRE 992 272 992 256
WIRE 1072 272 992 272
WIRE 368 320 368 192
WIRE 880 320 880 272
WIRE 880 320 800 320
WIRE -80 336 -80 272
WIRE 208 336 -80 336
WIRE 256 336 256 96
WIRE 256 336 208 336
WIRE 560 384 560 272
WIRE 560 384 416 384
WIRE 752 384 752 368
WIRE 256 416 256 336
WIRE 368 416 256 416
WIRE 752 496 752 464
WIRE 880 496 880 400
WIRE 880 496 752 496
FLAG -384 -64 VCC
FLAG -336 112 VCC/2
FLAG -384 272 0
FLAG 208 336 VCC/2
FLAG 992 272 0
FLAG 768 80 OUT
FLAG -32 64 IN
FLAG 752 176 VCC/2
FLAG 752 496 0
SYMBOL njf 416 320 M0
SYMATTR InstName J1
SYMATTR Value BSR58/PLP
SYMBOL Overige\ componenten\\voltage -464 -16 R0
WINDOW 123 0 0 Left 2
WINDOW 39 0 0 Left 2
SYMATTR InstName V3
SYMATTR Value 2.5
SYMBOL cap -256 144 R0
SYMATTR InstName C2
SYMATTR Value 10µ
SYMBOL Overige\ componenten\\voltage -80 176 R0
WINDOW 123 0 0 Left 2
WINDOW 39 0 0 Left 2
SYMATTR InstName V4
SYMATTR Value SINE(0 {VS} 82)
SYMBOL res -112 96 R90
WINDOW 0 0 56 VBottom 2
WINDOW 3 32 56 VTop 2
SYMATTR InstName R7
SYMATTR Value 100k
SYMBOL Overige\ componenten\\voltage -464 112 R0
WINDOW 123 0 0 Left 2
WINDOW 39 0 0 Left 2
SYMATTR InstName V1
SYMATTR Value 2.5
SYMBOL Opamps\\opamp 368 16 R0
SYMATTR InstName U2
SYMBOL schottky 880 96 R270
WINDOW 0 32 32 VTop 2
WINDOW 3 0 32 VBottom 2
SYMATTR InstName D1
SYMATTR Value BAT54
SYMATTR Description Diode
SYMATTR Type diode
SYMBOL cap 976 192 R0
SYMATTR InstName C1
SYMATTR Value 100µ
SYMBOL res 736 160 R0
SYMATTR InstName R2
SYMATTR Value 10k
SYMBOL BS170 800 272 M0
SYMATTR InstName MN1
SYMBOL res 864 304 R0
SYMATTR InstName R4
SYMATTR Value 50k
SYMBOL res 864 176 R0
SYMATTR InstName R5
SYMATTR Value 15k
SYMBOL res 736 368 R0
SYMATTR InstName R1
SYMATTR Value 1k
SYMBOL res 496 176 R90
WINDOW 0 0 56 VBottom 2
WINDOW 3 32 56 VTop 2
SYMATTR InstName R3
SYMATTR Value 24k
SYMBOL res 320 176 R90
WINDOW 0 0 56 VBottom 2
WINDOW 3 32 56 VTop 2
SYMATTR InstName R6
SYMATTR Value 3k
SYMBOL res 176 176 R90
WINDOW 0 0 56 VBottom 2
WINDOW 3 32 56 VTop 2
SYMATTR InstName R8
SYMATTR Value 1k
TEXT -472 432 Left 2 !.tran 0 0.2 0.1
TEXT -472 368 Left 2 !.lib opamp.sub
TEXT -128 376 Left 2 !.step param VS list 0.5m 1m 5m 10m
TEXT -128 424 Left 2 !;dc V4 10m 1000m 10m
TEXT -472 400 Left 2 !.lib phil_fet.lib
