Version 4
SHEET 1 1392 1072
WIRE -320 -16 -368 -16
WIRE -272 -16 -320 -16
WIRE -192 -16 -272 -16
WIRE 336 -16 -192 -16
WIRE 992 -16 336 -16
WIRE -48 48 -112 48
WIRE -32 48 -48 48
WIRE 32 48 -32 48
WIRE 192 48 32 48
WIRE -272 80 -272 -16
WIRE -32 80 -32 48
WIRE 192 80 192 48
WIRE -368 96 -368 -16
WIRE -112 96 -112 48
WIRE 704 96 608 96
WIRE 784 96 704 96
WIRE 896 96 864 96
WIRE 960 96 896 96
WIRE 1088 96 1040 96
WIRE -192 112 -192 -16
WIRE 32 112 32 48
WIRE 336 128 336 -16
WIRE 304 144 256 144
WIRE 464 160 368 160
WIRE 512 160 464 160
WIRE 544 160 512 160
WIRE 608 160 608 96
WIRE 192 176 192 160
WIRE 192 176 112 176
WIRE 304 176 192 176
WIRE 512 192 512 160
WIRE -272 208 -272 160
WIRE -192 208 -192 176
WIRE -192 208 -272 208
WIRE -32 208 -32 160
WIRE 32 208 32 176
WIRE 32 208 -32 208
WIRE 992 208 992 -16
WIRE -192 224 -192 208
WIRE -32 224 -32 208
WIRE 32 224 32 208
WIRE 192 224 192 176
WIRE 704 224 656 224
WIRE 784 224 704 224
WIRE 896 224 896 96
WIRE 896 224 864 224
WIRE 960 224 896 224
WIRE -272 240 -272 208
WIRE 1088 240 1088 96
WIRE 1088 240 1024 240
WIRE 256 256 256 144
WIRE 368 256 256 256
WIRE 464 256 464 160
WIRE 464 256 448 256
WIRE 960 256 944 256
WIRE 112 272 112 240
WIRE 512 288 512 272
WIRE 592 288 512 288
WIRE 624 288 592 288
WIRE 512 304 512 288
WIRE 944 320 944 256
WIRE 784 336 752 336
WIRE 896 336 896 224
WIRE 896 336 864 336
WIRE -368 384 -368 176
WIRE -272 384 -272 320
WIRE -272 384 -368 384
WIRE -192 384 -192 288
WIRE -192 384 -272 384
WIRE -112 384 -112 176
WIRE -112 384 -192 384
WIRE -64 384 -112 384
WIRE -32 384 -32 304
WIRE -32 384 -64 384
WIRE 32 384 32 288
WIRE 32 384 -32 384
WIRE 112 384 112 352
WIRE 112 384 32 384
WIRE 192 384 192 304
WIRE 192 384 112 384
WIRE 336 384 336 192
WIRE 336 384 192 384
WIRE 512 384 512 368
WIRE 512 384 336 384
WIRE 992 384 992 272
WIRE 992 384 512 384
WIRE -64 432 -64 384
WIRE 656 480 656 224
WIRE 752 480 752 336
WIRE 288 512 240 512
WIRE 336 512 288 512
WIRE 336 576 336 512
WIRE 304 592 256 592
WIRE 464 608 368 608
WIRE 656 608 656 544
WIRE 656 608 464 608
WIRE -48 624 -112 624
WIRE 112 624 32 624
WIRE 304 624 112 624
WIRE -112 640 -112 624
WIRE 112 640 112 624
WIRE 752 640 752 544
WIRE 256 704 256 592
WIRE 464 704 464 608
WIRE 464 704 256 704
WIRE -368 832 -368 384
WIRE -112 832 -112 720
WIRE -112 832 -368 832
WIRE 112 832 112 704
WIRE 112 832 -112 832
WIRE 336 832 336 640
WIRE 336 832 112 832
WIRE 752 832 752 720
WIRE 752 832 336 832
FLAG -64 432 0
FLAG -320 -16 9V
FLAG -48 48 5V
FLAG -272 208 4.5V
FLAG -32 208 2.5V
FLAG 368 336 2.5V
FLAG 592 288 sense
FLAG 944 320 4.5V
FLAG 288 512 9V
FLAG 704 96 instrument
FLAG 704 224 reference
FLAG 752 336 clicker
SYMBOL Opamps\\LT1413 336 96 R0
SYMATTR InstName U3
SYMBOL Overige\ componenten\\voltage -368 80 R0
WINDOW 123 0 0 Left 2
WINDOW 39 0 0 Left 2
SYMATTR InstName V1
SYMATTR Value 9
SYMBOL Overige\ componenten\\voltage -112 80 R0
WINDOW 123 0 0 Left 2
WINDOW 39 0 0 Left 2
SYMATTR InstName V2
SYMATTR Value 5
SYMBOL res -288 224 R0
SYMATTR InstName R1
SYMATTR Value 10k
SYMBOL res -288 64 R0
SYMATTR InstName R2
SYMATTR Value 10k
SYMBOL res -48 64 R0
SYMATTR InstName R3
SYMATTR Value 10k
SYMBOL res -48 208 R0
SYMATTR InstName R4
SYMATTR Value 10k
SYMBOL Overige\ componenten\\voltage 112 256 R0
WINDOW 123 0 0 Left 2
WINDOW 39 0 0 Left 2
SYMATTR InstName V3
SYMATTR Value SINE(0 1 400)
SYMBOL cap 96 176 R0
SYMATTR InstName C1
SYMATTR Value 0.1µ
SYMBOL res 176 64 R0
SYMATTR InstName R5
SYMATTR Value 10k
SYMBOL res 176 208 R0
SYMATTR InstName R6
SYMATTR Value 10k
SYMBOL cap 608 144 R90
WINDOW 0 0 32 VBottom 2
WINDOW 3 32 32 VTop 2
SYMATTR InstName C2
SYMATTR Value 1µ
SYMBOL res 464 240 R90
WINDOW 0 0 56 VBottom 2
WINDOW 3 32 56 VTop 2
SYMATTR InstName R9
SYMATTR Value 10k
SYMBOL res 384 352 R180
WINDOW 0 36 76 Left 2
WINDOW 3 36 40 Left 2
SYMATTR InstName R10
SYMATTR Value 10k
SYMBOL cap -208 112 R0
SYMATTR InstName C3
SYMATTR Value 10µ
SYMBOL cap -208 224 R0
SYMATTR InstName C4
SYMATTR Value 10µ
SYMBOL cap 16 112 R0
SYMATTR InstName C5
SYMATTR Value 10µ
SYMBOL cap 16 224 R0
SYMATTR InstName C6
SYMATTR Value 10µ
SYMBOL Overige\ componenten\\voltage 752 624 R0
WINDOW 123 0 0 Left 2
WINDOW 39 0 0 Left 2
SYMATTR InstName V4
SYMATTR Value PULSE(0 5 0 0.0001 0.0001 0.05 0.1)
SYMBOL Opamps\\LT1413 992 176 R0
SYMATTR InstName U2
SYMBOL res 1056 80 R90
WINDOW 0 0 56 VBottom 2
WINDOW 3 32 56 VTop 2
SYMATTR InstName R11
SYMATTR Value 10k
SYMBOL res 880 320 R90
WINDOW 0 0 56 VBottom 2
WINDOW 3 32 56 VTop 2
SYMATTR InstName R12
SYMATTR Value 10k
SYMBOL res 880 80 R90
WINDOW 0 0 56 VBottom 2
WINDOW 3 32 56 VTop 2
SYMATTR InstName R13
SYMATTR Value 100k
SYMBOL res 880 208 R90
WINDOW 0 0 56 VBottom 2
WINDOW 3 32 56 VTop 2
SYMATTR InstName R14
SYMATTR Value 100k
SYMBOL cap 768 544 R180
WINDOW 0 24 56 Left 2
WINDOW 3 24 8 Left 2
SYMATTR InstName C7
SYMATTR Value 0.1µ
SYMBOL res 496 176 R0
SYMATTR InstName R7
SYMATTR Value 5k
SYMBOL cap 496 304 R0
SYMATTR InstName C8
SYMATTR Value 0.1µ
SYMBOL Overige\ componenten\\voltage -112 624 R0
WINDOW 123 0 0 Left 2
WINDOW 39 0 0 Left 2
SYMATTR InstName V5
SYMATTR Value SINE(2.5 2.5 329)
SYMBOL res 48 608 R90
WINDOW 0 0 56 VBottom 2
WINDOW 3 32 56 VTop 2
SYMATTR InstName R8
SYMATTR Value 1k
SYMBOL cap 96 640 R0
SYMATTR InstName C9
SYMATTR Value 0.1µ
SYMBOL Opamps\\LT1413 336 544 R0
SYMATTR InstName U1
SYMBOL cap 640 480 R0
SYMATTR InstName C10
SYMATTR Value 1µ
TEXT 264 -48 Left 2 ;Input buffer
TEXT -400 456 Left 2 !.tran 0.1
TEXT 472 -48 Left 2 ;recording
TEXT 768 -48 Left 2 ;Volume
TEXT 928 -48 Left 2 ;Output buffer
TEXT -96 520 Left 2 ;Reference
TEXT 840 584 Left 2 ;Click
