Version 4
SHEET 1 1392 1072
WIRE -512 -16 -560 -16
WIRE 976 -16 -512 -16
WIRE 1104 -16 976 -16
WIRE -560 16 -560 -16
WIRE -240 48 -400 48
WIRE -224 48 -240 48
WIRE 336 48 -224 48
WIRE -400 80 -400 48
WIRE -224 80 -224 48
WIRE 976 80 976 -16
WIRE 1072 96 896 96
WIRE 1200 96 1152 96
WIRE 336 128 336 48
WIRE -560 144 -560 96
WIRE 304 144 256 144
WIRE 464 160 368 160
WIRE 512 160 464 160
WIRE 1104 160 1104 -16
WIRE -48 176 -160 176
WIRE 112 176 32 176
WIRE 304 176 112 176
WIRE 896 176 896 96
WIRE 1072 176 896 176
WIRE 512 192 512 160
WIRE 1200 192 1200 96
WIRE 1200 192 1136 192
WIRE -224 208 -224 160
WIRE -160 208 -160 176
WIRE -160 208 -224 208
WIRE 976 208 976 160
WIRE 1040 208 976 208
WIRE 1072 208 1040 208
WIRE -224 224 -224 208
WIRE -160 224 -160 208
WIRE 704 224 656 224
WIRE 784 224 704 224
WIRE 896 224 896 176
WIRE 896 224 864 224
WIRE -400 240 -400 160
WIRE 256 240 256 144
WIRE 368 240 256 240
WIRE 464 240 464 160
WIRE 464 240 448 240
WIRE 976 240 976 208
WIRE 1040 256 1040 208
WIRE 112 272 112 240
WIRE 512 288 512 272
WIRE 592 288 512 288
WIRE 624 288 592 288
WIRE 1200 288 1200 256
WIRE 512 304 512 288
WIRE 784 336 752 336
WIRE 896 336 896 224
WIRE 896 336 864 336
WIRE -560 384 -560 224
WIRE -400 384 -400 320
WIRE -400 384 -560 384
WIRE -256 384 -400 384
WIRE -224 384 -224 304
WIRE -224 384 -256 384
WIRE -160 384 -160 288
WIRE -160 384 -224 384
WIRE 112 384 112 352
WIRE 112 384 -160 384
WIRE 336 384 336 192
WIRE 336 384 112 384
WIRE 368 384 336 384
WIRE 512 384 512 368
WIRE 512 384 368 384
WIRE 976 384 976 320
WIRE 976 384 512 384
WIRE 1040 384 1040 320
WIRE 1040 384 976 384
WIRE 1104 384 1104 224
WIRE 1104 384 1040 384
WIRE 1200 384 1200 368
WIRE 1200 384 1104 384
WIRE -256 432 -256 384
WIRE 432 432 384 432
WIRE 480 432 432 432
WIRE 656 480 656 224
WIRE 752 480 752 336
WIRE 432 512 400 512
WIRE 576 512 512 512
WIRE 480 576 480 432
WIRE 272 592 -80 592
WIRE 400 592 400 512
WIRE 400 592 352 592
WIRE 448 592 400 592
WIRE 576 608 576 512
WIRE 576 608 512 608
WIRE 656 608 656 544
WIRE 656 608 576 608
WIRE -240 624 -304 624
WIRE -80 624 -80 592
WIRE -80 624 -160 624
WIRE 448 624 400 624
WIRE -304 640 -304 624
WIRE -80 640 -80 624
WIRE 752 640 752 544
WIRE 400 688 400 624
WIRE 400 736 400 688
WIRE -560 832 -560 384
WIRE -304 832 -304 720
WIRE -304 832 -560 832
WIRE -80 832 -80 704
WIRE -80 832 -304 832
WIRE 480 832 480 640
WIRE 480 832 -80 832
WIRE 752 832 752 720
WIRE 752 832 480 832
FLAG -256 432 0
FLAG -512 -16 9V
FLAG -240 48 5V
FLAG 976 208 4.5V
FLAG -224 208 2.5V
FLAG 592 288 sense
FLAG 432 432 5V
FLAG 704 224 reference
FLAG 752 336 clicker
FLAG 400 688 2.5V
SYMBOL Opamps\\LT1413 336 96 R0
SYMATTR InstName U3
SYMBOL Overige\ componenten\\voltage -560 128 R0
WINDOW 123 0 0 Left 2
WINDOW 39 0 0 Left 2
SYMATTR InstName V1
SYMATTR Value SINE(9 0.1 5000)
SYMBOL Overige\ componenten\\voltage -400 224 R0
WINDOW 123 0 0 Left 2
WINDOW 39 0 0 Left 2
SYMATTR InstName V2
SYMATTR Value SINE(5 0.1 5000)
SYMBOL res 960 224 R0
SYMATTR InstName R1
SYMATTR Value 100k
SYMBOL res 960 64 R0
SYMATTR InstName R2
SYMATTR Value 100k
SYMBOL res -240 64 R0
SYMATTR InstName R3
SYMATTR Value 100k
SYMBOL res -240 208 R0
SYMATTR InstName R4
SYMATTR Value 100k
SYMBOL Overige\ componenten\\voltage 112 256 R0
WINDOW 123 0 0 Left 2
WINDOW 39 0 0 Left 2
SYMATTR InstName V3
SYMATTR Value SINE(0 0.01 80)
SYMBOL cap 96 176 R0
SYMATTR InstName C1
SYMATTR Value 1µ
SYMBOL res 464 224 R90
WINDOW 0 0 56 VBottom 2
WINDOW 3 32 56 VTop 2
SYMATTR InstName R9
SYMATTR Value 150k
SYMBOL res 384 336 R180
WINDOW 0 36 76 Left 2
WINDOW 3 36 40 Left 2
SYMATTR InstName R10
SYMATTR Value 1500
SYMBOL cap -176 224 R0
SYMATTR InstName C6
SYMATTR Value 1µ
SYMBOL Overige\ componenten\\voltage 752 624 R0
WINDOW 123 0 0 Left 2
WINDOW 39 0 0 Left 2
SYMATTR InstName V4
SYMATTR Value PULSE(0 5 0 0.0001 0.0001 0.05 0.1)
SYMBOL Opamps\\LT1413 1104 128 R0
WINDOW 3 11 115 Left 2
SYMATTR InstName U2
SYMBOL res 1168 80 R90
WINDOW 0 0 56 VBottom 2
WINDOW 3 32 56 VTop 2
SYMATTR InstName R11
SYMATTR Value 5k
SYMBOL res 880 320 R90
WINDOW 0 0 56 VBottom 2
WINDOW 3 32 56 VTop 2
SYMATTR InstName R12
SYMATTR Value 10k
SYMBOL res 880 208 R90
WINDOW 0 0 56 VBottom 2
WINDOW 3 32 56 VTop 2
SYMATTR InstName R14
SYMATTR Value 10k
SYMBOL cap 768 544 R180
WINDOW 0 24 56 Left 2
WINDOW 3 24 8 Left 2
SYMATTR InstName C7
SYMATTR Value 0.1µ
SYMBOL res 496 176 R0
SYMATTR InstName R7
SYMATTR Value 1k
SYMBOL cap 496 304 R0
SYMATTR InstName C8
SYMATTR Value 0.1µ
SYMBOL Overige\ componenten\\voltage -304 624 R0
WINDOW 123 0 0 Left 2
WINDOW 39 0 0 Left 2
SYMATTR InstName V5
SYMATTR Value SINE(2.5 2.5 329)
SYMBOL res -144 608 R90
WINDOW 0 0 56 VBottom 2
WINDOW 3 32 56 VTop 2
SYMATTR InstName R8
SYMATTR Value 1k
SYMBOL cap -96 640 R0
SYMATTR InstName C9
SYMATTR Value 0.1µ
SYMBOL Opamps\\LT1413 480 544 R0
SYMATTR InstName U1
SYMBOL cap 640 480 R0
SYMATTR InstName C10
SYMATTR Value 1µ
SYMBOL res 368 576 R90
WINDOW 0 0 56 VBottom 2
WINDOW 3 32 56 VTop 2
SYMATTR InstName R15
SYMATTR Value 20k
SYMBOL res 528 496 R90
WINDOW 0 0 56 VBottom 2
WINDOW 3 32 56 VTop 2
SYMATTR InstName R16
SYMATTR Value 10k
SYMBOL cap 352 320 R0
SYMATTR InstName C2
SYMATTR Value 1µ
SYMBOL res 48 160 R90
WINDOW 0 0 56 VBottom 2
WINDOW 3 32 56 VTop 2
SYMATTR InstName R13
SYMATTR Value 100k
SYMBOL cap 1024 256 R0
SYMATTR InstName C3
SYMATTR Value 1µ
SYMBOL cap 1184 192 R0
SYMATTR InstName C4
SYMATTR Value 470µ
SYMBOL res 1184 272 R0
SYMATTR InstName R5
SYMATTR Value 50
SYMBOL res -416 64 R0
SYMATTR InstName R6
SYMATTR Value 10
SYMBOL res -576 0 R0
SYMATTR InstName R17
SYMATTR Value 10
TEXT 264 -48 Left 2 ;Input buffer
TEXT -592 456 Left 2 !.tran 0.1
TEXT 472 -48 Left 2 ;recording
TEXT 768 -48 Left 2 ;Volume
TEXT 1040 -48 Left 2 ;Output buffer
TEXT -288 520 Left 2 ;Reference
TEXT 840 584 Left 2 ;Click
